# generated using pymatgen
data_GeCl3
_symmetry_space_group_name_H-M   'P 1'
_cell_length_a   5.91437000
_cell_length_b   7.19642000
_cell_length_c   8.36143000
_cell_angle_alpha   90.00000000
_cell_angle_beta   107.59318000
_cell_angle_gamma   90.00000000
_symmetry_Int_Tables_number   1
_chemical_formula_structural   GeCl3
_chemical_formula_sum   'Ge2 Cl6'
_cell_volume   339.23583878
_cell_formula_units_Z   2
loop_
 _symmetry_equiv_pos_site_id
 _symmetry_equiv_pos_as_xyz
  1  'x, y, z'
loop_
 _atom_site_type_symbol
 _atom_site_label
 _atom_site_symmetry_multiplicity
 _atom_site_fract_x
 _atom_site_fract_y
 _atom_site_fract_z
 _atom_site_occupancy
  Ge  Ge0  1  0.60000100  0.75000000  0.79999700  1.0
  Ge  Ge1  1  0.54632300  0.25000000  0.35436550  1.0
  Cl  Cl2  1  0.19769700  0.75000000  0.79053200  1.0
  Cl  Cl3  1  0.14401900  0.25000000  0.34490050  1.0
  Cl  Cl4  1  0.65781100  0.00752400  0.55099550  1.0
  Cl  Cl5  1  0.71148900  0.50752400  0.99662700  1.0
  Cl  Cl6  1  0.65781100  0.49247600  0.55099550  1.0
  Cl  Cl7  1  0.71148900  0.99247600  0.99662700  1.0
