# generated using pymatgen
data_GeCl3
_symmetry_space_group_name_H-M   'P 1'
_cell_length_a   17.74311000
_cell_length_b   21.58926000
_cell_length_c   25.08429000
_cell_angle_alpha   90.00000000
_cell_angle_beta   107.59318000
_cell_angle_gamma   90.00000000
_symmetry_Int_Tables_number   1
_chemical_formula_structural   GeCl3
_chemical_formula_sum   'Ge54 Cl162'
_cell_volume   9159.36764716
_cell_formula_units_Z   54
loop_
 _symmetry_equiv_pos_site_id
 _symmetry_equiv_pos_as_xyz
  1  'x, y, z'
loop_
 _atom_site_type_symbol
 _atom_site_label
 _atom_site_symmetry_multiplicity
 _atom_site_fract_x
 _atom_site_fract_y
 _atom_site_fract_z
 _atom_site_occupancy
  Ge  Ge0  1  0.17011233  0.25000000  0.33063150  1.0
  Ge  Ge1  1  0.17011233  0.25000000  0.66396483  1.0
  Ge  Ge2  1  0.17011233  0.25000000  0.99729817  1.0
  Ge  Ge3  1  0.17011233  0.58333333  0.33063150  1.0
  Ge  Ge4  1  0.17011233  0.58333333  0.66396483  1.0
  Ge  Ge5  1  0.17011233  0.58333333  0.99729817  1.0
  Ge  Ge6  1  0.17011233  0.91666667  0.33063150  1.0
  Ge  Ge7  1  0.17011233  0.91666667  0.66396483  1.0
  Ge  Ge8  1  0.17011233  0.91666667  0.99729817  1.0
  Ge  Ge9  1  0.50344567  0.25000000  0.33063150  1.0
  Ge  Ge10  1  0.50344567  0.25000000  0.66396483  1.0
  Ge  Ge11  1  0.50344567  0.25000000  0.99729817  1.0
  Ge  Ge12  1  0.50344567  0.58333333  0.33063150  1.0
  Ge  Ge13  1  0.50344567  0.58333333  0.66396483  1.0
  Ge  Ge14  1  0.50344567  0.58333333  0.99729817  1.0
  Ge  Ge15  1  0.50344567  0.91666667  0.33063150  1.0
  Ge  Ge16  1  0.50344567  0.91666667  0.66396483  1.0
  Ge  Ge17  1  0.50344567  0.91666667  0.99729817  1.0
  Ge  Ge18  1  0.83677900  0.25000000  0.33063150  1.0
  Ge  Ge19  1  0.83677900  0.25000000  0.66396483  1.0
  Ge  Ge20  1  0.83677900  0.25000000  0.99729817  1.0
  Ge  Ge21  1  0.83677900  0.58333333  0.33063150  1.0
  Ge  Ge22  1  0.83677900  0.58333333  0.66396483  1.0
  Ge  Ge23  1  0.83677900  0.58333333  0.99729817  1.0
  Ge  Ge24  1  0.83677900  0.91666667  0.33063150  1.0
  Ge  Ge25  1  0.83677900  0.91666667  0.66396483  1.0
  Ge  Ge26  1  0.83677900  0.91666667  0.99729817  1.0
  Ge  Ge27  1  0.15221967  0.08333333  0.18208767  1.0
  Ge  Ge28  1  0.15221967  0.08333333  0.51542100  1.0
  Ge  Ge29  1  0.15221967  0.08333333  0.84875433  1.0
  Ge  Ge30  1  0.15221967  0.41666667  0.18208767  1.0
  Ge  Ge31  1  0.15221967  0.41666667  0.51542100  1.0
  Ge  Ge32  1  0.15221967  0.41666667  0.84875433  1.0
  Ge  Ge33  1  0.15221967  0.75000000  0.18208767  1.0
  Ge  Ge34  1  0.15221967  0.75000000  0.51542100  1.0
  Ge  Ge35  1  0.15221967  0.75000000  0.84875433  1.0
  Ge  Ge36  1  0.48555300  0.08333333  0.18208767  1.0
  Ge  Ge37  1  0.48555300  0.08333333  0.51542100  1.0
  Ge  Ge38  1  0.48555300  0.08333333  0.84875433  1.0
  Ge  Ge39  1  0.48555300  0.41666667  0.18208767  1.0
  Ge  Ge40  1  0.48555300  0.41666667  0.51542100  1.0
  Ge  Ge41  1  0.48555300  0.41666667  0.84875433  1.0
  Ge  Ge42  1  0.48555300  0.75000000  0.18208767  1.0
  Ge  Ge43  1  0.48555300  0.75000000  0.51542100  1.0
  Ge  Ge44  1  0.48555300  0.75000000  0.84875433  1.0
  Ge  Ge45  1  0.81888633  0.08333333  0.18208767  1.0
  Ge  Ge46  1  0.81888633  0.08333333  0.51542100  1.0
  Ge  Ge47  1  0.81888633  0.08333333  0.84875433  1.0
  Ge  Ge48  1  0.81888633  0.41666667  0.18208767  1.0
  Ge  Ge49  1  0.81888633  0.41666667  0.51542100  1.0
  Ge  Ge50  1  0.81888633  0.41666667  0.84875433  1.0
  Ge  Ge51  1  0.81888633  0.75000000  0.18208767  1.0
  Ge  Ge52  1  0.81888633  0.75000000  0.51542100  1.0
  Ge  Ge53  1  0.81888633  0.75000000  0.84875433  1.0
  Cl  Cl54  1  0.30421367  0.25000000  0.00045317  1.0
  Cl  Cl55  1  0.30421367  0.25000000  0.33378650  1.0
  Cl  Cl56  1  0.30421367  0.25000000  0.66711983  1.0
  Cl  Cl57  1  0.30421367  0.58333333  0.00045317  1.0
  Cl  Cl58  1  0.30421367  0.58333333  0.33378650  1.0
  Cl  Cl59  1  0.30421367  0.58333333  0.66711983  1.0
  Cl  Cl60  1  0.30421367  0.91666667  0.00045317  1.0
  Cl  Cl61  1  0.30421367  0.91666667  0.33378650  1.0
  Cl  Cl62  1  0.30421367  0.91666667  0.66711983  1.0
  Cl  Cl63  1  0.63754700  0.25000000  0.00045317  1.0
  Cl  Cl64  1  0.63754700  0.25000000  0.33378650  1.0
  Cl  Cl65  1  0.63754700  0.25000000  0.66711983  1.0
  Cl  Cl66  1  0.63754700  0.58333333  0.00045317  1.0
  Cl  Cl67  1  0.63754700  0.58333333  0.33378650  1.0
  Cl  Cl68  1  0.63754700  0.58333333  0.66711983  1.0
  Cl  Cl69  1  0.63754700  0.91666667  0.00045317  1.0
  Cl  Cl70  1  0.63754700  0.91666667  0.33378650  1.0
  Cl  Cl71  1  0.63754700  0.91666667  0.66711983  1.0
  Cl  Cl72  1  0.97088033  0.25000000  0.00045317  1.0
  Cl  Cl73  1  0.97088033  0.25000000  0.33378650  1.0
  Cl  Cl74  1  0.97088033  0.25000000  0.66711983  1.0
  Cl  Cl75  1  0.97088033  0.58333333  0.00045317  1.0
  Cl  Cl76  1  0.97088033  0.58333333  0.33378650  1.0
  Cl  Cl77  1  0.97088033  0.58333333  0.66711983  1.0
  Cl  Cl78  1  0.97088033  0.91666667  0.00045317  1.0
  Cl  Cl79  1  0.97088033  0.91666667  0.33378650  1.0
  Cl  Cl80  1  0.97088033  0.91666667  0.66711983  1.0
  Cl  Cl81  1  0.28632100  0.08333333  0.18524267  1.0
  Cl  Cl82  1  0.28632100  0.08333333  0.51857600  1.0
  Cl  Cl83  1  0.28632100  0.08333333  0.85190933  1.0
  Cl  Cl84  1  0.28632100  0.41666667  0.18524267  1.0
  Cl  Cl85  1  0.28632100  0.41666667  0.51857600  1.0
  Cl  Cl86  1  0.28632100  0.41666667  0.85190933  1.0
  Cl  Cl87  1  0.28632100  0.75000000  0.18524267  1.0
  Cl  Cl88  1  0.28632100  0.75000000  0.51857600  1.0
  Cl  Cl89  1  0.28632100  0.75000000  0.85190933  1.0
  Cl  Cl90  1  0.61965433  0.08333333  0.18524267  1.0
  Cl  Cl91  1  0.61965433  0.08333333  0.51857600  1.0
  Cl  Cl92  1  0.61965433  0.08333333  0.85190933  1.0
  Cl  Cl93  1  0.61965433  0.41666667  0.18524267  1.0
  Cl  Cl94  1  0.61965433  0.41666667  0.51857600  1.0
  Cl  Cl95  1  0.61965433  0.41666667  0.85190933  1.0
  Cl  Cl96  1  0.61965433  0.75000000  0.18524267  1.0
  Cl  Cl97  1  0.61965433  0.75000000  0.51857600  1.0
  Cl  Cl98  1  0.61965433  0.75000000  0.85190933  1.0
  Cl  Cl99  1  0.95298767  0.08333333  0.18524267  1.0
  Cl  Cl100  1  0.95298767  0.08333333  0.51857600  1.0
  Cl  Cl101  1  0.95298767  0.08333333  0.85190933  1.0
  Cl  Cl102  1  0.95298767  0.41666667  0.18524267  1.0
  Cl  Cl103  1  0.95298767  0.41666667  0.51857600  1.0
  Cl  Cl104  1  0.95298767  0.41666667  0.85190933  1.0
  Cl  Cl105  1  0.95298767  0.75000000  0.18524267  1.0
  Cl  Cl106  1  0.95298767  0.75000000  0.51857600  1.0
  Cl  Cl107  1  0.95298767  0.75000000  0.85190933  1.0
  Cl  Cl108  1  0.11505700  0.00250800  0.11654433  1.0
  Cl  Cl109  1  0.11505700  0.00250800  0.44987767  1.0
  Cl  Cl110  1  0.11505700  0.00250800  0.78321100  1.0
  Cl  Cl111  1  0.11505700  0.33584133  0.11654433  1.0
  Cl  Cl112  1  0.11505700  0.33584133  0.44987767  1.0
  Cl  Cl113  1  0.11505700  0.33584133  0.78321100  1.0
  Cl  Cl114  1  0.11505700  0.66917467  0.11654433  1.0
  Cl  Cl115  1  0.11505700  0.66917467  0.44987767  1.0
  Cl  Cl116  1  0.11505700  0.66917467  0.78321100  1.0
  Cl  Cl117  1  0.44839033  0.00250800  0.11654433  1.0
  Cl  Cl118  1  0.44839033  0.00250800  0.44987767  1.0
  Cl  Cl119  1  0.44839033  0.00250800  0.78321100  1.0
  Cl  Cl120  1  0.44839033  0.33584133  0.11654433  1.0
  Cl  Cl121  1  0.44839033  0.33584133  0.44987767  1.0
  Cl  Cl122  1  0.44839033  0.33584133  0.78321100  1.0
  Cl  Cl123  1  0.44839033  0.66917467  0.11654433  1.0
  Cl  Cl124  1  0.44839033  0.66917467  0.44987767  1.0
  Cl  Cl125  1  0.44839033  0.66917467  0.78321100  1.0
  Cl  Cl126  1  0.78172367  0.00250800  0.11654433  1.0
  Cl  Cl127  1  0.78172367  0.00250800  0.44987767  1.0
  Cl  Cl128  1  0.78172367  0.00250800  0.78321100  1.0
  Cl  Cl129  1  0.78172367  0.33584133  0.11654433  1.0
  Cl  Cl130  1  0.78172367  0.33584133  0.44987767  1.0
  Cl  Cl131  1  0.78172367  0.33584133  0.78321100  1.0
  Cl  Cl132  1  0.78172367  0.66917467  0.11654433  1.0
  Cl  Cl133  1  0.78172367  0.66917467  0.44987767  1.0
  Cl  Cl134  1  0.78172367  0.66917467  0.78321100  1.0
  Cl  Cl135  1  0.13294967  0.16917467  0.26508817  1.0
  Cl  Cl136  1  0.13294967  0.16917467  0.59842150  1.0
  Cl  Cl137  1  0.13294967  0.16917467  0.93175483  1.0
  Cl  Cl138  1  0.13294967  0.50250800  0.26508817  1.0
  Cl  Cl139  1  0.13294967  0.50250800  0.59842150  1.0
  Cl  Cl140  1  0.13294967  0.50250800  0.93175483  1.0
  Cl  Cl141  1  0.13294967  0.83584133  0.26508817  1.0
  Cl  Cl142  1  0.13294967  0.83584133  0.59842150  1.0
  Cl  Cl143  1  0.13294967  0.83584133  0.93175483  1.0
  Cl  Cl144  1  0.46628300  0.16917467  0.26508817  1.0
  Cl  Cl145  1  0.46628300  0.16917467  0.59842150  1.0
  Cl  Cl146  1  0.46628300  0.16917467  0.93175483  1.0
  Cl  Cl147  1  0.46628300  0.50250800  0.26508817  1.0
  Cl  Cl148  1  0.46628300  0.50250800  0.59842150  1.0
  Cl  Cl149  1  0.46628300  0.50250800  0.93175483  1.0
  Cl  Cl150  1  0.46628300  0.83584133  0.26508817  1.0
  Cl  Cl151  1  0.46628300  0.83584133  0.59842150  1.0
  Cl  Cl152  1  0.46628300  0.83584133  0.93175483  1.0
  Cl  Cl153  1  0.79961633  0.16917467  0.26508817  1.0
  Cl  Cl154  1  0.79961633  0.16917467  0.59842150  1.0
  Cl  Cl155  1  0.79961633  0.16917467  0.93175483  1.0
  Cl  Cl156  1  0.79961633  0.50250800  0.26508817  1.0
  Cl  Cl157  1  0.79961633  0.50250800  0.59842150  1.0
  Cl  Cl158  1  0.79961633  0.50250800  0.93175483  1.0
  Cl  Cl159  1  0.79961633  0.83584133  0.26508817  1.0
  Cl  Cl160  1  0.79961633  0.83584133  0.59842150  1.0
  Cl  Cl161  1  0.79961633  0.83584133  0.93175483  1.0
  Cl  Cl162  1  0.11505700  0.16415867  0.11654433  1.0
  Cl  Cl163  1  0.11505700  0.16415867  0.44987767  1.0
  Cl  Cl164  1  0.11505700  0.16415867  0.78321100  1.0
  Cl  Cl165  1  0.11505700  0.49749200  0.11654433  1.0
  Cl  Cl166  1  0.11505700  0.49749200  0.44987767  1.0
  Cl  Cl167  1  0.11505700  0.49749200  0.78321100  1.0
  Cl  Cl168  1  0.11505700  0.83082533  0.11654433  1.0
  Cl  Cl169  1  0.11505700  0.83082533  0.44987767  1.0
  Cl  Cl170  1  0.11505700  0.83082533  0.78321100  1.0
  Cl  Cl171  1  0.44839033  0.16415867  0.11654433  1.0
  Cl  Cl172  1  0.44839033  0.16415867  0.44987767  1.0
  Cl  Cl173  1  0.44839033  0.16415867  0.78321100  1.0
  Cl  Cl174  1  0.44839033  0.49749200  0.11654433  1.0
  Cl  Cl175  1  0.44839033  0.49749200  0.44987767  1.0
  Cl  Cl176  1  0.44839033  0.49749200  0.78321100  1.0
  Cl  Cl177  1  0.44839033  0.83082533  0.11654433  1.0
  Cl  Cl178  1  0.44839033  0.83082533  0.44987767  1.0
  Cl  Cl179  1  0.44839033  0.83082533  0.78321100  1.0
  Cl  Cl180  1  0.78172367  0.16415867  0.11654433  1.0
  Cl  Cl181  1  0.78172367  0.16415867  0.44987767  1.0
  Cl  Cl182  1  0.78172367  0.16415867  0.78321100  1.0
  Cl  Cl183  1  0.78172367  0.49749200  0.11654433  1.0
  Cl  Cl184  1  0.78172367  0.49749200  0.44987767  1.0
  Cl  Cl185  1  0.78172367  0.49749200  0.78321100  1.0
  Cl  Cl186  1  0.78172367  0.83082533  0.11654433  1.0
  Cl  Cl187  1  0.78172367  0.83082533  0.44987767  1.0
  Cl  Cl188  1  0.78172367  0.83082533  0.78321100  1.0
  Cl  Cl189  1  0.13294967  0.33082533  0.26508817  1.0
  Cl  Cl190  1  0.13294967  0.33082533  0.59842150  1.0
  Cl  Cl191  1  0.13294967  0.33082533  0.93175483  1.0
  Cl  Cl192  1  0.13294967  0.66415867  0.26508817  1.0
  Cl  Cl193  1  0.13294967  0.66415867  0.59842150  1.0
  Cl  Cl194  1  0.13294967  0.66415867  0.93175483  1.0
  Cl  Cl195  1  0.13294967  0.99749200  0.26508817  1.0
  Cl  Cl196  1  0.13294967  0.99749200  0.59842150  1.0
  Cl  Cl197  1  0.13294967  0.99749200  0.93175483  1.0
  Cl  Cl198  1  0.46628300  0.33082533  0.26508817  1.0
  Cl  Cl199  1  0.46628300  0.33082533  0.59842150  1.0
  Cl  Cl200  1  0.46628300  0.33082533  0.93175483  1.0
  Cl  Cl201  1  0.46628300  0.66415867  0.26508817  1.0
  Cl  Cl202  1  0.46628300  0.66415867  0.59842150  1.0
  Cl  Cl203  1  0.46628300  0.66415867  0.93175483  1.0
  Cl  Cl204  1  0.46628300  0.99749200  0.26508817  1.0
  Cl  Cl205  1  0.46628300  0.99749200  0.59842150  1.0
  Cl  Cl206  1  0.46628300  0.99749200  0.93175483  1.0
  Cl  Cl207  1  0.79961633  0.33082533  0.26508817  1.0
  Cl  Cl208  1  0.79961633  0.33082533  0.59842150  1.0
  Cl  Cl209  1  0.79961633  0.33082533  0.93175483  1.0
  Cl  Cl210  1  0.79961633  0.66415867  0.26508817  1.0
  Cl  Cl211  1  0.79961633  0.66415867  0.59842150  1.0
  Cl  Cl212  1  0.79961633  0.66415867  0.93175483  1.0
  Cl  Cl213  1  0.79961633  0.99749200  0.26508817  1.0
  Cl  Cl214  1  0.79961633  0.99749200  0.59842150  1.0
  Cl  Cl215  1  0.79961633  0.99749200  0.93175483  1.0
